LAMMPS (4 Feb 2025)
# lammps script for generation of a bicrystal conical emitter
# with 5 nm radius
# the script will generate three files: Material.txt, Vaccum.txt, Fixed.txt
# Material.txt: contains the atoms of the emitter
# Vaccum.txt: contains the lattice points of the vaccum region
# Fixed.txt: contains the lattice points of the fixed region

# initialization of the simulation settings
echo                both
units               metal
dimension           3
atom_style          atomic
boundary            f f f

# Atom definition for emitter geometry with a Sigma 5 (310) [001] CSL GB in FCC Al

# full simulation box
region             both block 0 400 0 400 0 800

# outer emitter geometry
region             shaft cylinder z 200 200 110 0 200
region             top sphere 200 200 200 110
region             apttip union 2 top shaft

# inner solid region (material)
region             innertop sphere 200 200 200 79.5
region             innerbot cone z 200 200 100 80 0 200
region             innertip union 2 innertop innerbot

# fixing base layer
region             special cylinder z 200 200 110 0 1
region             bottom block 0 400 0 400 0 1

# Define subregions for the bicrystal grains (split at x = 200)
region             leftgrain block 0 200 0 400 0 800
region             rightgrain block 200 400 0 400 0 800

create_box         1 both  ## Change the value from 1 to 2 for two atom types
Created orthogonal box = (0 0 0) to (400 400 800)

# -- Emitter orientation: CSL GB (Sigma 5) bicrystal specimen for FCC Aluminum --

# Left grain: using orientation from sample "upper"
lattice            fcc 4.05 orient x  0 3 1 orient y  0 -1 3 orient z  1 0 0
Lattice spacing in x,y,z = 5.1228898 5.1228898 4.05
create_atoms       1 region leftgrain
Created 3867138 atoms

# Right grain: using orientation from sample "lower"
lattice            fcc 4.05 orient x  0 3 -1 orient y  0 1 3 orient z  1 0 0
Lattice spacing in x,y,z = 5.1228898 5.1228898 4.05
create_atoms       1 region rightgrain
Created 3859812 atoms

# Force field settings
pair_style         eam/alloy
pair_coeff         * * ../../../resources/potentials/Al99.eam.alloy Al

# group definitions to cut out the emitter
group              sim region apttip
628372 atoms in group sim
group              kill subtract all sim
7098578 atoms in group kill
delete_atoms       group kill
Deleted 7098578 atoms, new total = 628372

group              material region innertip
373044 atoms in group material
set                group material type/fraction 1 0.02 1394
Setting atom values ...
  7486 settings made for type/fraction
group              prefixed region special
4633 atoms in group prefixed
group              fixed subtract prefixed material
800 atoms in group fixed
group              vaccum subtract sim material fixed
254528 atoms in group vaccum
group              freeze region bottom
4633 atoms in group freeze

# output configuration
thermo_style       custom step temp press vol pe etotal pxx pyy pzz lx lz
thermo_modify      lost ignore
thermo             100

# energy minimization of the structure
fix                1 freeze setforce NULL NULL 0
min_style          cg
#min_modify         line forcezero
minimize           0.0 1e-10 50000 5000000
Step          Temp          Press          Volume         PotEng         TotEng          Pxx            Pyy            Pzz             Lx             Lz
0   0             -91.968402      1.28e+08      -2085858.3     -2085858.3     -33.700659     -47.763967     -194.44058      400            800
Averages over the last 8 of 16 rows, steps 800 to 1428:
Temp Press Volume PotEng TotEng Pxx Pyy Pzz Lx Lz
0 -0.0830118 1.28e+08 -2.09275e+06 -2.09275e+06 0.00942264 -0.00546878 -0.252989 400 800
Loop time of 1173.73 on 1 procs for 1428 steps with 628372 atoms

Minimization stats:
  Stopping criterion = linesearch alpha is zero
  Energy initial, next-to-last, final =
  Force two-norm initial, final = 253.50145 0.0021867288
  Force max component initial, final = 2.072162 0.0006084412
  Final line search alpha, max atom move = 0.001953125 1.1883617e-06
  Iterations, force evaluations = 1428 2770

# dumping the configuration settings into output files
reset_timestep     0
dump               1 material custom 1 Material.txt x y z type
dump               2 vaccum custom 1 Vaccum.txt x y z type
dump               3 fixed custom 1 Fixed.txt x y z type
run                0
Step          Temp          Press          Volume         PotEng         TotEng          Pxx            Pyy            Pzz             Lx             Lz
0   0              0.070279436    1.28e+08      -2092751.9     -2092751.9     -0.016639955    0.015620039    0.21185822     400            800
Loop time of 5e-07 on 1 procs for 0 steps with 628372 atoms
